FeederExample/ArquivosDssMTBT/ABDD201/ABDD201CargaBT_Jan.dss
new load.3000465115M1 bus1=R1199503.1.2.0,Phases=2,kv=0.22,kw=0.93930574139839,pf=0.92,Vminpu=0.92,Vmaxpu=1.5,model=2,daily=arqCurvaNormCOM2,status=variable
new load.3000465115M2 bus1=R1199503.1.2.0,Phases=2,kv=0.22,kw=0.93930574139839,pf=0.92,Vminpu=0.92,Vmaxpu=1.5,model=3,daily=arqCurvaNormCOM2,status=variable

new load.3000465117M1 bus1=R1199496.1.2.0,Phases=2,kv=0.22,kw=0.0262761633271623,pf=0.92,Vminpu=0.92,Vmaxpu=1.5,model=2,daily=arqCurvaNormRES1,status=variable
new load.3000465117M2 bus1=R1199496.1.2.0,Phases=2,kv=0.22,kw=0.0262761633271623,pf=0.92,Vminpu=0.92,Vmaxpu=1.5,model=3,daily=arqCurvaNormRES1,status=variable

new load.3000465118M1 bus1=R1199489.1.2.0,Phases=2,kv=0.22,kw=0.367554420547195,pf=0.92,Vminpu=0.92,Vmaxpu=1.5,model=2,daily=arqCurvaNormCOM2,status=variable
new load.3000465118M2 bus1=R1199489.1.2.0,Phases=2,kv=0.22,kw=0.367554420547195,pf=0.92,Vminpu=0.92,Vmaxpu=1.5,model=3,daily=arqCurvaNormCOM2,status=variable

new load.3000465120M1 bus1=R1199580.1.0,Phases=1,kv=0.127,kw=0.29461358042162,pf=0.92,Vminpu=0.92,Vmaxpu=1.5,model=2,daily=arqCurvaNormRES3,status=variable
new load.3000465120M2 bus1=R1199580.1.0,Phases=1,kv=0.127,kw=0.29461358042162,pf=0.92,Vminpu=0.92,Vmaxpu=1.5,model=3,daily=arqCurvaNormRES3,status=variable

new load.3000465121M1 bus1=R1199979.1.2.0,Phases=2,kv=0.22,kw=1.19689811056653,pf=0.92,Vminpu=0.92,Vmaxpu=1.5,model=2,daily=arqCurvaNormCOM3,status=variable
new load.3000465121M2 bus1=R1199979.1.2.0,Phases=2,kv=0.22,kw=1.19689811056653,pf=0.92,Vminpu=0.92,Vmaxpu=1.5,model=3,daily=arqCurvaNormCOM3,status=variable

new load.3000465122M1 bus1=R1199979.1.2.0,Phases=2,kv=0.22,kw=0.055846411891248,pf=0.92,Vminpu=0.92,Vmaxpu=1.5,model=2,daily=arqCurvaNormRES2,status=variable
new load.3000465122M2 bus1=R1199979.1.2.0,Phases=2,kv=0.22,kw=0.055846411891248,pf=0.92,Vminpu=0.92,Vmaxpu=1.5,model=3,daily=arqCurvaNormRES2,status=variable

new load.3000465124M1 bus1=R1199944.1.0,Phases=1,kv=0.127,kw=0.0746796220877245,pf=0.92,Vminpu=0.92,Vmaxpu=1.5,model=2,daily=arqCurvaNormRES1,status=variable
new load.3000465124M2 bus1=R1199944.1.0,Phases=1,kv=0.127,kw=0.0746796220877245,pf=0.92,Vminpu=0.92,Vmaxpu=1.5,model=3,daily=arqCurvaNormRES1,status=variable

new load.3000465125M1 bus1=R1200770.1.0,Phases=1,kv=0.127,kw=0.197505603030024,pf=0.92,Vminpu=0.92,Vmaxpu=1.5,model=2,daily=arqCurvaNormRES2,status=variable
new load.3000465125M2 bus1=R1200770.1.0,Phases=1,kv=0.127,kw=0.197505603030024,pf=0.92,Vminpu=0.92,Vmaxpu=1.5,model=3,daily=arqCurvaNormRES2,status=variable

new load.3000465126M1 bus1=R1200784.1.0,Phases=1,kv=0.127,kw=0.249652471762899,pf=0.92,Vminpu=0.92,Vmaxpu=1.5,model=2,daily=arqCurvaNormRES3,status=variable
new load.3000465126M2 bus1=R1200784.1.0,Phases=1,kv=0.127,kw=0.249652471762899,pf=0.92,Vminpu=0.92,Vmaxpu=1.5,model=3,daily=arqCurvaNormRES3,status=variable

new load.3000465129M1 bus1=R1200602.1.2.0,Phases=2,kv=0.22,kw=0.857917715036895,pf=0.92,Vminpu=0.92,Vmaxpu=1.5,model=2,daily=arqCurvaNormRES5,status=variable
new load.3000465129M2 bus1=R1200602.1.2.0,Phases=2,kv=0.22,kw=0.857917715036895,pf=0.92,Vminpu=0.92,Vmaxpu=1.5,model=3,daily=arqCurvaNormRES5,status=variable

new load.3000465130M1 bus1=R1200994.1.2.3.0,Phases=3,kv=0.22,kw=0.0456375468313871,pf=0.92,Vminpu=0.92,Vmaxpu=1.5,model=2,daily=arqCurvaNormRES1,status=variable
new load.3000465130M2 bus1=R1200994.1.2.3.0,Phases=3,kv=0.22,kw=0.0456375468313871,pf=0.92,Vminpu=0.92,Vmaxpu=1.5,model=3,daily=arqCurvaNormRES1,status=variable

new load.3000465133M1 bus1=R4319921.1.2.3.0,Phases=3,kv=0.22,kw=1.36860592601361,pf=0.92,Vminpu=0.92,Vmaxpu=1.5,model=2,daily=arqCurvaNormIND3,status=variable
new load.3000465133M2 bus1=R4319921.1.2.3.0,Phases=3,kv=0.22,kw=1.36860592601361,pf=0.92,Vminpu=0.92,Vmaxpu=1.5,model=3,daily=arqCurvaNormIND3,status=variable

new load.3000465134M1 bus1=R1201176.1.0,Phases=1,kv=0.127,kw=0.774422073670775,pf=0.92,Vminpu=0.92,Vmaxpu=1.5,model=2,daily=arqCurvaNormRES5,status=variable
new load.3000465134M2 bus1=R1201176.1.0,Phases=1,kv=0.127,kw=0.774422073670775,pf=0.92,Vminpu=0.92,Vmaxpu=1.5,model=3,daily=arqCurvaNormRES5,status=variable

new load.3000465135M1 bus1=R1201183.1.2.0,Phases=2,kv=0.22,kw=0.120317168919112,pf=0.92,Vminpu=0.92,Vmaxpu=1.5,model=2,daily=arqCurvaNormRES1,status=variable
new load.3000465135M2 bus1=R1201183.1.2.0,Phases=2,kv=0.22,kw=0.120317168919112,pf=0.92,Vminpu=0.92,Vmaxpu=1.5,model=3,daily=arqCurvaNormRES1,status=variable

new load.3000465137M1 bus1=R1201330.1.0,Phases=1,kv=0.127,kw=0.140799261325995,pf=0.92,Vminpu=0.92,Vmaxpu=1.5,model=2,daily=arqCurvaNormRES3,status=variable
new load.3000465137M2 bus1=R1201330.1.0,Phases=1,kv=0.127,kw=0.140799261325995,pf=0.92,Vminpu=0.92,Vmaxpu=1.5,model=3,daily=arqCurvaNormRES3,status=variable

new load.3000465138M1 bus1=R1201386.1.0,Phases=1,kv=0.127,kw=0.0636159743710245,pf=0.92,Vminpu=0.92,Vmaxpu=1.5,model=2,daily=arqCurvaNormRES1,status=variable
new load.3000465138M2 bus1=R1201386.1.0,Phases=1,kv=0.127,kw=0.0636159743710245,pf=0.92,Vminpu=0.92,Vmaxpu=1.5,model=3,daily=arqCurvaNormRES1,status=variable

new load.3000465139M1 bus1=R1201239.1.0,Phases=1,kv=0.127,kw=0.204316141065542,pf=0.92,Vminpu=0.92,Vmaxpu=1.5,model=2,daily=arqCurvaNormRES2,status=variable
new load.3000465139M2 bus1=R1201239.1.0,Phases=1,kv=0.127,kw=0.204316141065542,pf=0.92,Vminpu=0.92,Vmaxpu=1.5,model=3,daily=arqCurvaNormRES2,status=variable

new load.3000465141M1 bus1=R1201393.1.0,Phases=1,kv=0.127,kw=0.112019433131586,pf=0.92,Vminpu=0.92,Vmaxpu=1.5,model=2,daily=arqCurvaNormRES1,status=variable
new load.3000465141M2 bus1=R1201393.1.0,Phases=1,kv=0.127,kw=0.112019433131586,pf=0.92,Vminpu=0.92,Vmaxpu=1.5,model=3,daily=arqCurvaNormRES1,status=variable

new load.3000465142M1 bus1=R1201043.1.0,Phases=1,kv=0.127,kw=0.070530754193962,pf=0.92,Vminpu=0.92,Vmaxpu=1.5,model=2,daily=arqCurvaNormRES1,status=variable
new load.3000465142M2 bus1=R1201043.1.0,Phases=1,kv=0.127,kw=0.070530754193962,pf=0.92,Vminpu=0.92,Vmaxpu=1.5,model=3,daily=arqCurvaNormRES1,status=variable

new load.3000465146M1 bus1=R1200364.1.0,Phases=1,kv=0.127,kw=0.156642374816916,pf=0.92,Vminpu=0.92,Vmaxpu=1.5,model=2,daily=arqCurvaNormRES2,status=variable
new load.3000465146M2 bus1=R1200364.1.0,Phases=1,kv=0.127,kw=0.156642374816916,pf=0.92,Vminpu=0.92,Vmaxpu=1.5,model=3,daily=arqCurvaNormRES2,status=variable

new load.3000465147M1 bus1=R5203258.1.0,Phases=1,kv=0.127,kw=0.148469729174294,pf=0.92,Vminpu=0.92,Vmaxpu=1.5,model=2,daily=arqCurvaNormRES2,status=variable
new load.3000465147M2 bus1=R5203258.1.0,Phases=1,kv=0.127,kw=0.148469729174294,pf=0.92,Vminpu=0.92,Vmaxpu=1.5,model=3,daily=arqCurvaNormRES2,status=variable

new load.3000465149M1 bus1=R1200238.1.0,Phases=1,kv=0.127,kw=0.268583464882361,pf=0.92,Vminpu=0.92,Vmaxpu=1.5,model=2,daily=arqCurvaNormRES3,status=variable
new load.3000465149M2 bus1=R1200238.1.0,Phases=1,kv=0.127,kw=0.268583464882361,pf=0.92,Vminpu=0.92,Vmaxpu=1.5,model=3,daily=arqCurvaNormRES3,status=variable

new load.3000465151M1 bus1=R1199895.1.2.0,Phases=2,kv=0.22,kw=0.346673811500139,pf=0.92,Vminpu=0.92,Vmaxpu=1.5,model=2,daily=arqCurvaNormRES3,status=variable
new load.3000465151M2 bus1=R1199895.1.2.0,Phases=2,kv=0.22,kw=0.346673811500139,pf=0.92,Vminpu=0.92,Vmaxpu=1.5,model=3,daily=arqCurvaNormRES3,status=variable

new load.3000465152M1 bus1=R1199881.1.0,Phases=1,kv=0.127,kw=0.085743269804424,pf=0.92,Vminpu=0.92,Vmaxpu=1.5,model=2,daily=arqCurvaNormRES1,status=variable
new load.3000465152M2 bus1=R1199881.1.0,Phases=1,kv=0.127,kw=0.085743269804424,pf=0.92,Vminpu=0.92,Vmaxpu=1.5,model=3,daily=arqCurvaNormRES1,status=variable

new load.3000465153M1 bus1=R1199699.1.0,Phases=1,kv=0.127,kw=0.202954033458438,pf=0.92,Vminpu=0.92,Vmaxpu=1.5,model=2,daily=arqCurvaNormRES2,status=variable
new load.3000465153M2 bus1=R1199699.1.0,Phases=1,kv=0.127,kw=0.202954033458438,pf=0.92,Vminpu=0.92,Vmaxpu=1.5,model=3,daily=arqCurvaNormRES2,status=variable

new load.3000465154M1 bus1=R1199741.1.2.0,Phases=2,kv=0.22,kw=0.241370162273134,pf=0.92,Vminpu=0.92,Vmaxpu=1.5,model=2,daily=arqCurvaNormRES3,status=variable
new load.3000465154M2 bus1=R1199741.1.2.0,Phases=2,kv=0.22,kw=0.241370162273134,pf=0.92,Vminpu=0.92,Vmaxpu=1.5,model=3,daily=arqCurvaNormRES3,status=variable

new load.3000465157M1 bus1=R1199321.1.0,Phases=1,kv=0.127,kw=0.0248932073625748,pf=0.92,Vminpu=0.92,Vmaxpu=1.5,model=2,daily=arqCurvaNormRES1,status=variable
new load.3000465157M2 bus1=R1199321.1.0,Phases=1,kv=0.127,kw=0.0248932073625748,pf=0.92,Vminpu=0.92,Vmaxpu=1.5,model=3,daily=arqCurvaNormRES1,status=variable

new load.3000465159M1 bus1=R1199265.1.0,Phases=1,kv=0.127,kw=0.105104653308649,pf=0.92,Vminpu=0.92,Vmaxpu=1.5,model=2,daily=arqCurvaNormRES1,status=variable
new load.3000465159M2 bus1=R1199265.1.0,Phases=1,kv=0.127,kw=0.105104653308649,pf=0.92,Vminpu=0.92,Vmaxpu=1.5,model=3,daily=arqCurvaNormRES1,status=variable

new load.3000465161M1 bus1=R1199153.1.0,Phases=1,kv=0.127,kw=0.0387227670084496,pf=0.92,Vminpu=0.92,Vmaxpu=1.5,model=2,daily=arqCurvaNormRES1,status=variable
new load.3000465161M2 bus1=R1199153.1.0,Phases=1,kv=0.127,kw=0.0387227670084496,pf=0.92,Vminpu=0.92,Vmaxpu=1.5,model=3,daily=arqCurvaNormRES1,status=variable

new load.3000465162M1 bus1=R1199160.1.2.0,Phases=2,kv=0.22,kw=0.09807174771146,pf=0.92,Vminpu=0.92,Vmaxpu=1.5,model=2,daily=arqCurvaNormRES2,status=variable
new load.3000465162M2 bus1=R1199160.1.2.0,Phases=2,kv=0.22,kw=0.09807174771146,pf=0.92,Vminpu=0.92,Vmaxpu=1.5,model=3,daily=arqCurvaNormRES2,status=variable

new load.3000465163M1 bus1=R1199307.1.0,Phases=1,kv=0.127,kw=0.140297083531672,pf=0.92,Vminpu=0.92,Vmaxpu=1.5,model=2,daily=arqCurvaNormRES2,status=variable
new load.3000465163M2 bus1=R1199307.1.0,Phases=1,kv=0.127,kw=0.140297083531672,pf=0.92,Vminpu=0.92,Vmaxpu=1.5,model=3,daily=arqCurvaNormRES2,status=variable

new load.3000465164M1 bus1=R1199300.1.0,Phases=1,kv=0.127,kw=0.181027621704851,pf=0.92,Vminpu=0.92,Vmaxpu=1.5,model=2,daily=arqCurvaNormRES3,status=variable
new load.3000465164M2 bus1=R1199300.1.0,Phases=1,kv=0.127,kw=0.181027621704851,pf=0.92,Vminpu=0.92,Vmaxpu=1.5,model=3,daily=arqCurvaNormRES3,status=variable

new load.3000465165M1 bus1=R1199293.1.0,Phases=1,kv=0.127,kw=0.070530754193962,pf=0.92,Vminpu=0.92,Vmaxpu=1.5,model=2,daily=arqCurvaNormRES1,status=variable
new load.3000465165M2 bus1=R1199293.1.0,Phases=1,kv=0.127,kw=0.070530754193962,pf=0.92,Vminpu=0.92,Vmaxpu=1.5,model=3,daily=arqCurvaNormRES1,status=variable

new load.3000465166M1 bus1=R1199251.1.0,Phases=1,kv=0.127,kw=0.222023539957889,pf=0.92,Vminpu=0.92,Vmaxpu=1.5,model=2,daily=arqCurvaNormRES2,status=variable
new load.3000465166M2 bus1=R1199251.1.0,Phases=1,kv=0.127,kw=0.222023539957889,pf=0.92,Vminpu=0.92,Vmaxpu=1.5,model=3,daily=arqCurvaNormRES2,status=variable

new load.3000465167M1 bus1=R1199258.1.0,Phases=1,kv=0.127,kw=0.117551256989937,pf=0.92,Vminpu=0.92,Vmaxpu=1.5,model=2,daily=arqCurvaNormRES1,status=variable
new load.3000465167M2 bus1=R1199258.1.0,Phases=1,kv=0.127,kw=0.117551256989937,pf=0.92,Vminpu=0.92,Vmaxpu=1.5,model=3,daily=arqCurvaNormRES1,status=variable

new load.3000465168M1 bus1=R1199328.1.0,Phases=1,kv=0.127,kw=0.110330716175393,pf=0.92,Vminpu=0.92,Vmaxpu=1.5,model=2,daily=arqCurvaNormRES2,status=variable
new load.3000465168M2 bus1=R1199328.1.0,Phases=1,kv=0.127,kw=0.110330716175393,pf=0.92,Vminpu=0.92,Vmaxpu=1.5,model=3,daily=arqCurvaNormRES2,status=variable

new load.3000465169M1 bus1=R1199335.1.0,Phases=1,kv=0.127,kw=0.166177128066641,pf=0.92,Vminpu=0.92,Vmaxpu=1.5,model=2,daily=arqCurvaNormRES2,status=variable
new load.3000465169M2 bus1=R1199335.1.0,Phases=1,kv=0.127,kw=0.166177128066641,pf=0.92,Vminpu=0.92,Vmaxpu=1.5,model=3,daily=arqCurvaNormRES2,status=variable

new load.3000465173M1 bus1=R10622397.1.0,Phases=1,kv=0.127,kw=0.176271878561604,pf=0.92,Vminpu=0.92,Vmaxpu=1.5,model=2,daily=arqCurvaNormCOM1,status=variable
new load.3000465173M2 bus1=R10622397.1.0,Phases=1,kv=0.127,kw=0.176271878561604,pf=0.92,Vminpu=0.92,Vmaxpu=1.5,model=3,daily=arqCurvaNormCOM1,status=variable

new load.3000465174M1 bus1=R1199874.1.0,Phases=1,kv=0.127,kw=0.251989907314168,pf=0.92,Vminpu=0.92,Vmaxpu=1.5,model=2,daily=arqCurvaNormRES2,status=variable
new load.3000465174M2 bus1=R1199874.1.0,Phases=1,kv=0.127,kw=0.251989907314168,pf=0.92,Vminpu=0.92,Vmaxpu=1.5,model=3,daily=arqCurvaNormRES2,status=variable

new load.3000465178M1 bus1=R1200357.1.0,Phases=1,kv=0.127,kw=0.129400222674843,pf=0.92,Vminpu=0.92,Vmaxpu=1.5,model=2,daily=arqCurvaNormRES2,status=variable
new load.3000465178M2 bus1=R1200357.1.0,Phases=1,kv=0.127,kw=0.129400222674843,pf=0.92,Vminpu=0.92,Vmaxpu=1.5,model=3,daily=arqCurvaNormRES2,status=variable

new load.3000465180M1 bus1=R6180479.1.0,Phases=1,kv=0.127,kw=0.0304250312209247,pf=0.92,Vminpu=0.92,Vmaxpu=1.5,model=2,daily=arqCurvaNormRES1,status=variable
new load.3000465180M2 bus1=R6180479.1.0,Phases=1,kv=0.127,kw=0.0304250312209247,pf=0.92,Vminpu=0.92,Vmaxpu=1.5,model=3,daily=arqCurvaNormRES1,status=variable

new load.3000465183M1 bus1=R1201001.1.2.3.0,Phases=3,kv=0.22,kw=0.158004482424019,pf=0.92,Vminpu=0.92,Vmaxpu=1.5,model=2,daily=arqCurvaNormRES2,status=variable
new load.3000465183M2 bus1=R1201001.1.2.3.0,Phases=3,kv=0.22,kw=0.158004482424019,pf=0.92,Vminpu=0.92,Vmaxpu=1.5,model=3,daily=arqCurvaNormRES2,status=variable

new load.3000465185M1 bus1=R1201050.1.0,Phases=1,kv=0.127,kw=0.130762330281947,pf=0.92,Vminpu=0.92,Vmaxpu=1.5,model=2,daily=arqCurvaNormRES2,status=variable
new load.3000465185M2 bus1=R1201050.1.0,Phases=1,kv=0.127,kw=0.130762330281947,pf=0.92,Vminpu=0.92,Vmaxpu=1.5,model=3,daily=arqCurvaNormRES2,status=variable

new load.3000465186M1 bus1=R1201071.1.0,Phases=1,kv=0.127,kw=0.0719137101585495,pf=0.92,Vminpu=0.92,Vmaxpu=1.5,model=2,daily=arqCurvaNormRES1,status=variable
new load.3000465186M2 bus1=R1201071.1.0,Phases=1,kv=0.127,kw=0.0719137101585495,pf=0.92,Vminpu=0.92,Vmaxpu=1.5,model=3,daily=arqCurvaNormRES1,status=variable

new load.3000465187M1 bus1=R1201428.1.0,Phases=1,kv=0.127,kw=0.155280267209812,pf=0.92,Vminpu=0.92,Vmaxpu=1.5,model=2,daily=arqCurvaNormRES2,status=variable
new load.3000465187M2 bus1=R1201428.1.0,Phases=1,kv=0.127,kw=0.155280267209812,pf=0.92,Vminpu=0.92,Vmaxpu=1.5,model=3,daily=arqCurvaNormRES2,status=variable

new load.3000465188M1 bus1=R1201337.1.0,Phases=1,kv=0.127,kw=0.121227577032222,pf=0.92,Vminpu=0.92,Vmaxpu=1.5,model=2,daily=arqCurvaNormRES2,status=variable
new load.3000465188M2 bus1=R1201337.1.0,Phases=1,kv=0.127,kw=0.121227577032222,pf=0.92,Vminpu=0.92,Vmaxpu=1.5,model=3,daily=arqCurvaNormRES2,status=variable

new load.3000465189M1 bus1=R10367850.1.2.3.0,Phases=3,kv=0.22,kw=0.195225866544447,pf=0.92,Vminpu=0.92,Vmaxpu=1.5,model=2,daily=arqCurvaNormRES3,status=variable
new load.3000465189M2 bus1=R10367850.1.2.3.0,Phases=3,kv=0.22,kw=0.195225866544447,pf=0.92,Vminpu=0.92,Vmaxpu=1.5,model=3,daily=arqCurvaNormRES3,status=variable

new load.3000465190M1 bus1=R1201575.1.0,Phases=1,kv=0.127,kw=0.100955785414887,pf=0.92,Vminpu=0.92,Vmaxpu=1.5,model=2,daily=arqCurvaNormRES1,status=variable
new load.3000465190M2 bus1=R1201575.1.0,Phases=1,kv=0.127,kw=0.100955785414887,pf=0.92,Vminpu=0.92,Vmaxpu=1.5,model=3,daily=arqCurvaNormRES1,status=variable

new load.3000465191M1 bus1=R1201568.1.0,Phases=1,kv=0.127,kw=0.314214563899047,pf=0.92,Vminpu=0.92,Vmaxpu=1.5,model=2,daily=arqCurvaNormRES4,status=variable
new load.3000465191M2 bus1=R1201568.1.0,Phases=1,kv=0.127,kw=0.314214563899047,pf=0.92,Vminpu=0.92,Vmaxpu=1.5,model=3,daily=arqCurvaNormRES4,status=variable

new load.3000465192M1 bus1=R1201505.1.0,Phases=1,kv=0.127,kw=0.189332957387402,pf=0.92,Vminpu=0.92,Vmaxpu=1.5,model=2,daily=arqCurvaNormRES2,status=variable
new load.3000465192M2 bus1=R1201505.1.0,Phases=1,kv=0.127,kw=0.189332957387402,pf=0.92,Vminpu=0.92,Vmaxpu=1.5,model=3,daily=arqCurvaNormRES2,status=variable

new load.3000465193M1 bus1=R1201526.1.0,Phases=1,kv=0.127,kw=0.151193944388501,pf=0.92,Vminpu=0.92,Vmaxpu=1.5,model=2,daily=arqCurvaNormRES2,status=variable
new load.3000465193M2 bus1=R1201526.1.0,Phases=1,kv=0.127,kw=0.151193944388501,pf=0.92,Vminpu=0.92,Vmaxpu=1.5,model=3,daily=arqCurvaNormRES2,status=variable

new load.3000465194M1 bus1=R1201414.1.0,Phases=1,kv=0.127,kw=0.170263450887952,pf=0.92,Vminpu=0.92,Vmaxpu=1.5,model=2,daily=arqCurvaNormRES2,status=variable
new load.3000465194M2 bus1=R1201414.1.0,Phases=1,kv=0.127,kw=0.170263450887952,pf=0.92,Vminpu=0.92,Vmaxpu=1.5,model=3,daily=arqCurvaNormRES2,status=variable

new load.3000465195M1 bus1=R1201533.1.0,Phases=1,kv=0.127,kw=0.099572829450299,pf=0.92,Vminpu=0.92,Vmaxpu=1.5,model=2,daily=arqCurvaNormRES1,status=variable
new load.3000465195M2 bus1=R1201533.1.0,Phases=1,kv=0.127,kw=0.099572829450299,pf=0.92,Vminpu=0.92,Vmaxpu=1.5,model=3,daily=arqCurvaNormRES1,status=variable

new load.3000465196M1 bus1=R1201400.1.0,Phases=1,kv=0.127,kw=0.076062578052312,pf=0.92,Vminpu=0.92,Vmaxpu=1.5,model=2,daily=arqCurvaNormRES1,status=variable
new load.3000465196M2 bus1=R1201400.1.0,Phases=1,kv=0.127,kw=0.076062578052312,pf=0.92,Vminpu=0.92,Vmaxpu=1.5,model=3,daily=arqCurvaNormRES1,status=variable

new load.3000465197M1 bus1=R1199195.1.0,Phases=1,kv=0.127,kw=0.253202032972798,pf=0.92,Vminpu=0.92,Vmaxpu=1.5,model=2,daily=arqCurvaNormRES3,status=variable
new load.3000465197M2 bus1=R1199195.1.0,Phases=1,kv=0.127,kw=0.253202032972798,pf=0.92,Vminpu=0.92,Vmaxpu=1.5,model=3,daily=arqCurvaNormRES3,status=variable

new load.3000465198M1 bus1=R1201008.1.0,Phases=1,kv=0.127,kw=0.0470205027959746,pf=0.92,Vminpu=0.92,Vmaxpu=1.5,model=2,daily=arqCurvaNormRES1,status=variable
new load.3000465198M2 bus1=R1201008.1.0,Phases=1,kv=0.127,kw=0.0470205027959746,pf=0.92,Vminpu=0.92,Vmaxpu=1.5,model=3,daily=arqCurvaNormRES1,status=variable

new load.3000465199M1 bus1=R1201015.1.0,Phases=1,kv=0.127,kw=0.129400222674843,pf=0.92,Vminpu=0.92,Vmaxpu=1.5,model=2,daily=arqCurvaNormRES2,status=variable
new load.3000465199M2 bus1=R1201015.1.0,Phases=1,kv=0.127,kw=0.129400222674843,pf=0.92,Vminpu=0.92,Vmaxpu=1.5,model=3,daily=arqCurvaNormRES2,status=variable

new load.3000465201M1 bus1=R1199902.1.0,Phases=1,kv=0.127,kw=0.078828489981487,pf=0.92,Vminpu=0.92,Vmaxpu=1.5,model=2,daily=arqCurvaNormRES1,status=variable
new load.3000465201M2 bus1=R1199902.1.0,Phases=1,kv=0.127,kw=0.078828489981487,pf=0.92,Vminpu=0.92,Vmaxpu=1.5,model=3,daily=arqCurvaNormRES1,status=variable

new load.3000465202M1 bus1=R1199811.1.0,Phases=1,kv=0.127,kw=0.067764842264787,pf=0.92,Vminpu=0.92,Vmaxpu=1.5,model=2,daily=arqCurvaNormRES1,status=variable
new load.3000465202M2 bus1=R1199811.1.0,Phases=1,kv=0.127,kw=0.067764842264787,pf=0.92,Vminpu=0.92,Vmaxpu=1.5,model=3,daily=arqCurvaNormRES1,status=variable

new load.3000465204M1 bus1=R1199923.1.2.0,Phases=2,kv=0.22,kw=0.0802114459460745,pf=0.92,Vminpu=0.92,Vmaxpu=1.5,model=2,daily=arqCurvaNormRES1,status=variable
new load.3000465204M2 bus1=R1199923.1.2.0,Phases=2,kv=0.22,kw=0.0802114459460745,pf=0.92,Vminpu=0.92,Vmaxpu=1.5,model=3,daily=arqCurvaNormRES1,status=variable

new load.3000465206M1 bus1=R1199818.1.0,Phases=1,kv=0.127,kw=0.132763772600399,pf=0.92,Vminpu=0.92,Vmaxpu=1.5,model=2,daily=arqCurvaNormRES1,status=variable
new load.3000465206M2 bus1=R1199818.1.0,Phases=1,kv=0.127,kw=0.132763772600399,pf=0.92,Vminpu=0.92,Vmaxpu=1.5,model=3,daily=arqCurvaNormRES1,status=variable

new load.3000465208M1 bus1=R1199853.1.0,Phases=1,kv=0.127,kw=0.120317168919112,pf=0.92,Vminpu=0.92,Vmaxpu=1.5,model=2,daily=arqCurvaNormRES1,status=variable
new load.3000465208M2 bus1=R1199853.1.0,Phases=1,kv=0.127,kw=0.120317168919112,pf=0.92,Vminpu=0.92,Vmaxpu=1.5,model=3,daily=arqCurvaNormRES1,status=variable

new load.3000465210M1 bus1=R1199867.1.2.0,Phases=2,kv=0.22,kw=0.059467106477262,pf=0.92,Vminpu=0.92,Vmaxpu=1.5,model=2,daily=arqCurvaNormRES1,status=variable
new load.3000465210M2 bus1=R1199867.1.2.0,Phases=2,kv=0.22,kw=0.059467106477262,pf=0.92,Vminpu=0.92,Vmaxpu=1.5,model=3,daily=arqCurvaNormRES1,status=variable

new load.3000465211M1 bus1=R1199860.1.0,Phases=1,kv=0.127,kw=0.163452912852433,pf=0.92,Vminpu=0.92,Vmaxpu=1.5,model=2,daily=arqCurvaNormRES2,status=variable
new load.3000465211M2 bus1=R1199860.1.0,Phases=1,kv=0.127,kw=0.163452912852433,pf=0.92,Vminpu=0.92,Vmaxpu=1.5,model=3,daily=arqCurvaNormRES2,status=variable

new load.3000465212M1 bus1=R1200280.1.0,Phases=1,kv=0.127,kw=0.0636159743710245,pf=0.92,Vminpu=0.92,Vmaxpu=1.5,model=2,daily=arqCurvaNormRES1,status=variable
new load.3000465212M2 bus1=R1200280.1.0,Phases=1,kv=0.127,kw=0.0636159743710245,pf=0.92,Vminpu=0.92,Vmaxpu=1.5,model=3,daily=arqCurvaNormRES1,status=variable

new load.3000465213M1 bus1=R1200273.1.0,Phases=1,kv=0.127,kw=0.179798204137677,pf=0.92,Vminpu=0.92,Vmaxpu=1.5,model=2,daily=arqCurvaNormRES2,status=variable
new load.3000465213M2 bus1=R1200273.1.0,Phases=1,kv=0.127,kw=0.179798204137677,pf=0.92,Vminpu=0.92,Vmaxpu=1.5,model=3,daily=arqCurvaNormRES2,status=variable

new load.3000465215M1 bus1=R1200301.1.0,Phases=1,kv=0.127,kw=0.123951792246429,pf=0.92,Vminpu=0.92,Vmaxpu=1.5,model=2,daily=arqCurvaNormRES2,status=variable
new load.3000465215M2 bus1=R1200301.1.0,Phases=1,kv=0.127,kw=0.123951792246429,pf=0.92,Vminpu=0.92,Vmaxpu=1.5,model=3,daily=arqCurvaNormRES2,status=variable

new load.3000465216M1 bus1=R1200308.1.0,Phases=1,kv=0.127,kw=0.132124437889051,pf=0.92,Vminpu=0.92,Vmaxpu=1.5,model=2,daily=arqCurvaNormRES2,status=variable
new load.3000465216M2 bus1=R1200308.1.0,Phases=1,kv=0.127,kw=0.132124437889051,pf=0.92,Vminpu=0.92,Vmaxpu=1.5,model=3,daily=arqCurvaNormRES2,status=variable

new load.3000465217M1 bus1=R1199839.1.2.3.0,Phases=3,kv=0.22,kw=0.170263450887952,pf=0.92,Vminpu=0.92,Vmaxpu=1.5,model=2,daily=arqCurvaNormRES2,status=variable
new load.3000465217M2 bus1=R1199839.1.2.3.0,Phases=3,kv=0.22,kw=0.170263450887952,pf=0.92,Vminpu=0.92,Vmaxpu=1.5,model=3,daily=arqCurvaNormRES2,status=variable

new load.3000465218M1 bus1=R1200329.1.0,Phases=1,kv=0.127,kw=0.073553810783595,pf=0.92,Vminpu=0.92,Vmaxpu=1.5,model=2,daily=arqCurvaNormRES2,status=variable
new load.3000465218M2 bus1=R1200329.1.0,Phases=1,kv=0.127,kw=0.073553810783595,pf=0.92,Vminpu=0.92,Vmaxpu=1.5,model=3,daily=arqCurvaNormRES2,status=variable

new load.3000465219M1 bus1=R1201484.1.0,Phases=1,kv=0.127,kw=0.257438337742583,pf=0.92,Vminpu=0.92,Vmaxpu=1.5,model=2,daily=arqCurvaNormRES2,status=variable
new load.3000465219M2 bus1=R1201484.1.0,Phases=1,kv=0.127,kw=0.257438337742583,pf=0.92,Vminpu=0.92,Vmaxpu=1.5,model=3,daily=arqCurvaNormRES2,status=variable

new load.3000465220M1 bus1=R1201491.1.0,Phases=1,kv=0.127,kw=0.0248932073625748,pf=0.92,Vminpu=0.92,Vmaxpu=1.5,model=2,daily=arqCurvaNormRES1,status=variable
new load.3000465220M2 bus1=R1201491.1.0,Phases=1,kv=0.127,kw=0.0248932073625748,pf=0.92,Vminpu=0.92,Vmaxpu=1.5,model=3,daily=arqCurvaNormRES1,status=variable

new load.3000465221M1 bus1=R1201470.1.0,Phases=1,kv=0.127,kw=0.102338741379474,pf=0.92,Vminpu=0.92,Vmaxpu=1.5,model=2,daily=arqCurvaNormRES1,status=variable
new load.3000465221M2 bus1=R1201470.1.0,Phases=1,kv=0.127,kw=0.102338741379474,pf=0.92,Vminpu=0.92,Vmaxpu=1.5,model=3,daily=arqCurvaNormRES1,status=variable

new load.3000465222M1 bus1=R1201449.1.2.0,Phases=2,kv=0.22,kw=0.0235102513979873,pf=0.92,Vminpu=0.92,Vmaxpu=1.5,model=2,daily=arqCurvaNormRES1,status=variable
new load.3000465222M2 bus1=R1201449.1.2.0,Phases=2,kv=0.22,kw=0.0235102513979873,pf=0.92,Vminpu=0.92,Vmaxpu=1.5,model=3,daily=arqCurvaNormRES1,status=variable

new load.3000465225M1 bus1=R1201379.1.0,Phases=1,kv=0.127,kw=0.41490880638407,pf=0.92,Vminpu=0.92,Vmaxpu=1.5,model=2,daily=arqCurvaNormRES4,status=variable
new load.3000465225M2 bus1=R1201379.1.0,Phases=1,kv=0.127,kw=0.41490880638407,pf=0.92,Vminpu=0.92,Vmaxpu=1.5,model=3,daily=arqCurvaNormRES4,status=variable

new load.3000465226M1 bus1=R1201351.1.0,Phases=1,kv=0.127,kw=0.0830885640333205,pf=0.92,Vminpu=0.92,Vmaxpu=1.5,model=2,daily=arqCurvaNormRES2,status=variable
new load.3000465226M2 bus1=R1201351.1.0,Phases=1,kv=0.127,kw=0.0830885640333205,pf=0.92,Vminpu=0.92,Vmaxpu=1.5,model=3,daily=arqCurvaNormRES2,status=variable

new load.3000465227M1 bus1=R1201344.1.0,Phases=1,kv=0.127,kw=0.144383406352983,pf=0.92,Vminpu=0.92,Vmaxpu=1.5,model=2,daily=arqCurvaNormRES2,status=variable
new load.3000465227M2 bus1=R1201344.1.0,Phases=1,kv=0.127,kw=0.144383406352983,pf=0.92,Vminpu=0.92,Vmaxpu=1.5,model=3,daily=arqCurvaNormRES2,status=variable

new load.3000465230M1 bus1=R1201323.1.0,Phases=1,kv=0.127,kw=0.159366590031123,pf=0.92,Vminpu=0.92,Vmaxpu=1.5,model=2,daily=arqCurvaNormRES2,status=variable
new load.3000465230M2 bus1=R1201323.1.0,Phases=1,kv=0.127,kw=0.159366590031123,pf=0.92,Vminpu=0.92,Vmaxpu=1.5,model=3,daily=arqCurvaNormRES2,status=variable

new load.3000465232M1 bus1=R1201211.1.0,Phases=1,kv=0.127,kw=0.220661432350786,pf=0.92,Vminpu=0.92,Vmaxpu=1.5,model=2,daily=arqCurvaNormRES2,status=variable
new load.3000465232M2 bus1=R1201211.1.0,Phases=1,kv=0.127,kw=0.220661432350786,pf=0.92,Vminpu=0.92,Vmaxpu=1.5,model=3,daily=arqCurvaNormRES2,status=variable

new load.3000465233M1 bus1=R1201225.1.0,Phases=1,kv=0.127,kw=0.239003788133202,pf=0.92,Vminpu=0.92,Vmaxpu=1.5,model=2,daily=arqCurvaNormRES3,status=variable
new load.3000465233M2 bus1=R1201225.1.0,Phases=1,kv=0.127,kw=0.239003788133202,pf=0.92,Vminpu=0.92,Vmaxpu=1.5,model=3,daily=arqCurvaNormRES3,status=variable

new load.3000465234M1 bus1=R1201218.1.2.0,Phases=2,kv=0.22,kw=0.320643695960879,pf=0.92,Vminpu=0.92,Vmaxpu=1.5,model=2,daily=arqCurvaNormRES3,status=variable
new load.3000465234M2 bus1=R1201218.1.2.0,Phases=2,kv=0.22,kw=0.320643695960879,pf=0.92,Vminpu=0.92,Vmaxpu=1.5,model=3,daily=arqCurvaNormRES3,status=variable

new load.3000465235M1 bus1=R1200854.1.0,Phases=1,kv=0.127,kw=0.110330716175393,pf=0.92,Vminpu=0.92,Vmaxpu=1.5,model=2,daily=arqCurvaNormRES2,status=variable
new load.3000465235M2 bus1=R1200854.1.0,Phases=1,kv=0.127,kw=0.110330716175393,pf=0.92,Vminpu=0.92,Vmaxpu=1.5,model=3,daily=arqCurvaNormRES2,status=variable

new load.3000465236M1 bus1=R1200595.1.2.0,Phases=2,kv=0.22,kw=0.400256446057175,pf=0.92,Vminpu=0.92,Vmaxpu=1.5,model=2,daily=arqCurvaNormCOM1,status=variable
new load.3000465236M2 bus1=R1200595.1.2.0,Phases=2,kv=0.22,kw=0.400256446057175,pf=0.92,Vminpu=0.92,Vmaxpu=1.5,model=3,daily=arqCurvaNormCOM1,status=variable

new load.3000465237M1 bus1=R1200595.1.2.0,Phases=2,kv=0.22,kw=0.223385647564992,pf=0.92,Vminpu=0.92,Vmaxpu=1.5,model=2,daily=arqCurvaNormRES2,status=variable
new load.3000465237M2 bus1=R1200595.1.2.0,Phases=2,kv=0.22,kw=0.223385647564992,pf=0.92,Vminpu=0.92,Vmaxpu=1.5,model=3,daily=arqCurvaNormRES2,status=variable

new load.3000465238M1 bus1=R1200609.1.0,Phases=1,kv=0.127,kw=0.187970849780298,pf=0.92,Vminpu=0.92,Vmaxpu=1.5,model=2,daily=arqCurvaNormRES2,status=variable
new load.3000465238M2 bus1=R1200609.1.0,Phases=1,kv=0.127,kw=0.187970849780298,pf=0.92,Vminpu=0.92,Vmaxpu=1.5,model=3,daily=arqCurvaNormRES2,status=variable

new load.3000465239M1 bus1=R1200588.1.0,Phases=1,kv=0.127,kw=0.0179784275396374,pf=0.92,Vminpu=0.92,Vmaxpu=1.5,model=2,daily=arqCurvaNormRES1,status=variable
new load.3000465239M2 bus1=R1200588.1.0,Phases=1,kv=0.127,kw=0.0179784275396374,pf=0.92,Vminpu=0.92,Vmaxpu=1.5,model=3,daily=arqCurvaNormRES1,status=variable

new load.3000465241M1 bus1=R1200749.1.2.3.0,Phases=3,kv=0.22,kw=0.69537322806226,pf=0.92,Vminpu=0.92,Vmaxpu=1.5,model=2,daily=arqCurvaNormCOM2,status=variable
new load.3000465241M2 bus1=R1200749.1.2.3.0,Phases=3,kv=0.22,kw=0.69537322806226,pf=0.92,Vminpu=0.92,Vmaxpu=1.5,model=3,daily=arqCurvaNormCOM2,status=variable

new load.3000465242M1 bus1=R1200763.1.2.3.0,Phases=3,kv=0.22,kw=0.239730938850236,pf=0.92,Vminpu=0.92,Vmaxpu=1.5,model=2,daily=arqCurvaNormRES2,status=variable
new load.3000465242M2 bus1=R1200763.1.2.3.0,Phases=3,kv=0.22,kw=0.239730938850236,pf=0.92,Vminpu=0.92,Vmaxpu=1.5,model=3,daily=arqCurvaNormRES2,status=variable

new load.3000465245M1 bus1=R1199958.1.2.0,Phases=2,kv=0.22,kw=0.0193613835042248,pf=0.92,Vminpu=0.92,Vmaxpu=1.5,model=2,daily=arqCurvaNormRES1,status=variable
new load.3000465245M2 bus1=R1199958.1.2.0,Phases=2,kv=0.22,kw=0.0193613835042248,pf=0.92,Vminpu=0.92,Vmaxpu=1.5,model=3,daily=arqCurvaNormRES1,status=variable

new load.3000465246M1 bus1=R1199958.1.2.0,Phases=2,kv=0.22,kw=0.0746796220877245,pf=0.92,Vminpu=0.92,Vmaxpu=1.5,model=2,daily=arqCurvaNormRES1,status=variable
new load.3000465246M2 bus1=R1199958.1.2.0,Phases=2,kv=0.22,kw=0.0746796220877245,pf=0.92,Vminpu=0.92,Vmaxpu=1.5,model=3,daily=arqCurvaNormRES1,status=variable

new load.3000465247M1 bus1=R1199965.1.0,Phases=1,kv=0.127,kw=0.205678248672646,pf=0.92,Vminpu=0.92,Vmaxpu=1.5,model=2,daily=arqCurvaNormRES2,status=variable
new load.3000465247M2 bus1=R1199965.1.0,Phases=1,kv=0.127,kw=0.205678248672646,pf=0.92,Vminpu=0.92,Vmaxpu=1.5,model=3,daily=arqCurvaNormRES2,status=variable

new load.3000465248M1 bus1=R1199972.1.0,Phases=1,kv=0.127,kw=0.35613930805987,pf=0.92,Vminpu=0.92,Vmaxpu=1.5,model=2,daily=arqCurvaNormRES3,status=variable
new load.3000465248M2 bus1=R1199972.1.0,Phases=1,kv=0.127,kw=0.35613930805987,pf=0.92,Vminpu=0.92,Vmaxpu=1.5,model=3,daily=arqCurvaNormRES3,status=variable

new load.3000465250M1 bus1=R1199986.1.2.0,Phases=2,kv=0.22,kw=0.0354147977846939,pf=0.92,Vminpu=0.92,Vmaxpu=1.5,model=2,daily=arqCurvaNormRES2,status=variable
new load.3000465250M2 bus1=R1199986.1.2.0,Phases=2,kv=0.22,kw=0.0354147977846939,pf=0.92,Vminpu=0.92,Vmaxpu=1.5,model=3,daily=arqCurvaNormRES2,status=variable

new load.3000465251M1 bus1=R1199986.1.2.0,Phases=2,kv=0.22,kw=0.279649371251867,pf=0.92,Vminpu=0.92,Vmaxpu=1.5,model=2,daily=arqCurvaNormCOM1,status=variable
new load.3000465251M2 bus1=R1199986.1.2.0,Phases=2,kv=0.22,kw=0.279649371251867,pf=0.92,Vminpu=0.92,Vmaxpu=1.5,model=3,daily=arqCurvaNormCOM1,status=variable

new load.3000465253M1 bus1=R1199587.1.0,Phases=1,kv=0.127,kw=0.265687218123133,pf=0.92,Vminpu=0.92,Vmaxpu=1.5,model=2,daily=arqCurvaNormRES4,status=variable
new load.3000465253M2 bus1=R1199587.1.0,Phases=1,kv=0.127,kw=0.265687218123133,pf=0.92,Vminpu=0.92,Vmaxpu=1.5,model=3,daily=arqCurvaNormRES4,status=variable

new load.3000465254M1 bus1=R1199594.1.0,Phases=1,kv=0.127,kw=0.114785345060762,pf=0.92,Vminpu=0.92,Vmaxpu=1.5,model=2,daily=arqCurvaNormRES1,status=variable
new load.3000465254M2 bus1=R1199594.1.0,Phases=1,kv=0.127,kw=0.114785345060762,pf=0.92,Vminpu=0.92,Vmaxpu=1.5,model=3,daily=arqCurvaNormRES1,status=variable

new load.3000465256M1 bus1=R1200224.1.0,Phases=1,kv=0.127,kw=0.048403458760562,pf=0.92,Vminpu=0.92,Vmaxpu=1.5,model=2,daily=arqCurvaNormRES1,status=variable
new load.3000465256M2 bus1=R1200224.1.0,Phases=1,kv=0.127,kw=0.048403458760562,pf=0.92,Vminpu=0.92,Vmaxpu=1.5,model=3,daily=arqCurvaNormRES1,status=variable

new load.3000465258M1 bus1=R1200203.1.0,Phases=1,kv=0.127,kw=0.141659191138776,pf=0.92,Vminpu=0.92,Vmaxpu=1.5,model=2,daily=arqCurvaNormRES2,status=variable
new load.3000465258M2 bus1=R1200203.1.0,Phases=1,kv=0.127,kw=0.141659191138776,pf=0.92,Vminpu=0.92,Vmaxpu=1.5,model=3,daily=arqCurvaNormRES2,status=variable

new load.3000465259M1 bus1=R1200049.1.0,Phases=1,kv=0.127,kw=0.100955785414887,pf=0.92,Vminpu=0.92,Vmaxpu=1.5,model=2,daily=arqCurvaNormRES1,status=variable
new load.3000465259M2 bus1=R1200049.1.0,Phases=1,kv=0.127,kw=0.100955785414887,pf=0.92,Vminpu=0.92,Vmaxpu=1.5,model=3,daily=arqCurvaNormRES1,status=variable

new load.3000465260M1 bus1=R1200007.1.0,Phases=1,kv=0.127,kw=0.0802114459460745,pf=0.92,Vminpu=0.92,Vmaxpu=1.5,model=2,daily=arqCurvaNormRES1,status=variable
new load.3000465260M2 bus1=R1200007.1.0,Phases=1,kv=0.127,kw=0.0802114459460745,pf=0.92,Vminpu=0.92,Vmaxpu=1.5,model=3,daily=arqCurvaNormRES1,status=variable

new load.3000465262M1 bus1=R1200021.1.0,Phases=1,kv=0.127,kw=0.0774455340168995,pf=0.92,Vminpu=0.92,Vmaxpu=1.5,model=2,daily=arqCurvaNormRES1,status=variable
new load.3000465262M2 bus1=R1200021.1.0,Phases=1,kv=0.127,kw=0.0774455340168995,pf=0.92,Vminpu=0.92,Vmaxpu=1.5,model=3,daily=arqCurvaNormRES1,status=variable

new load.3000465263M1 bus1=R6180458.1.0,Phases=1,kv=0.127,kw=0.0774455340168995,pf=0.92,Vminpu=0.92,Vmaxpu=1.5,model=2,daily=arqCurvaNormRES1,status=variable
new load.3000465263M2 bus1=R6180458.1.0,Phases=1,kv=0.127,kw=0.0774455340168995,pf=0.92,Vminpu=0.92,Vmaxpu=1.5,model=3,daily=arqCurvaNormRES1,status=variable

new load.3000465264M1 bus1=R1200119.1.0,Phases=1,kv=0.127,kw=0.066743272748077,pf=0.92,Vminpu=0.92,Vmaxpu=1.5,model=2,daily=arqCurvaNormRES2,status=variable
new load.3000465264M2 bus1=R1200119.1.0,Phases=1,kv=0.127,kw=0.066743272748077,pf=0.92,Vminpu=0.92,Vmaxpu=1.5,model=3,daily=arqCurvaNormRES2,status=variable

new load.3000465265M1 bus1=R1200630.1.2.0,Phases=2,kv=0.22,kw=0.123083080848286,pf=0.92,Vminpu=0.92,Vmaxpu=1.5,model=2,daily=arqCurvaNormRES1,status=variable
new load.3000465265M2 bus1=R1200630.1.2.0,Phases=2,kv=0.22,kw=0.123083080848286,pf=0.92,Vminpu=0.92,Vmaxpu=1.5,model=3,daily=arqCurvaNormRES1,status=variable

new load.3000465266M1 bus1=R1200826.1.0,Phases=1,kv=0.127,kw=0.0165954715750498,pf=0.92,Vminpu=0.92,Vmaxpu=1.5,model=2,daily=arqCurvaNormRES1,status=variable
new load.3000465266M2 bus1=R1200826.1.0,Phases=1,kv=0.127,kw=0.0165954715750498,pf=0.92,Vminpu=0.92,Vmaxpu=1.5,model=3,daily=arqCurvaNormRES1,status=variable

new load.3000465267M1 bus1=R1199370.1.0,Phases=1,kv=0.127,kw=0.249652471762899,pf=0.92,Vminpu=0.92,Vmaxpu=1.5,model=2,daily=arqCurvaNormRES3,status=variable
new load.3000465267M2 bus1=R1199370.1.0,Phases=1,kv=0.127,kw=0.249652471762899,pf=0.92,Vminpu=0.92,Vmaxpu=1.5,model=3,daily=arqCurvaNormRES3,status=variable

new load.3000465269M1 bus1=R1200679.1.2.3.0,Phases=3,kv=0.22,kw=0.317094134750981,pf=0.92,Vminpu=0.92,Vmaxpu=1.5,model=2,daily=arqCurvaNormRES3,status=variable
new load.3000465269M2 bus1=R1200679.1.2.3.0,Phases=3,kv=0.22,kw=0.317094134750981,pf=0.92,Vminpu=0.92,Vmaxpu=1.5,model=3,daily=arqCurvaNormRES3,status=variable

new load.3000465270M1 bus1=R1200672.1.0,Phases=1,kv=0.127,kw=0.129400222674843,pf=0.92,Vminpu=0.92,Vmaxpu=1.5,model=2,daily=arqCurvaNormRES2,status=variable
new load.3000465270M2 bus1=R1200672.1.0,Phases=1,kv=0.127,kw=0.129400222674843,pf=0.92,Vminpu=0.92,Vmaxpu=1.5,model=3,daily=arqCurvaNormRES2,status=variable

new load.3000465271M1 bus1=R1200819.1.0,Phases=1,kv=0.127,kw=0.174349773709263,pf=0.92,Vminpu=0.92,Vmaxpu=1.5,model=2,daily=arqCurvaNormRES2,status=variable
new load.3000465271M2 bus1=R1200819.1.0,Phases=1,kv=0.127,kw=0.174349773709263,pf=0.92,Vminpu=0.92,Vmaxpu=1.5,model=3,daily=arqCurvaNormRES2,status=variable

new load.3000465272M1 bus1=R1200812.1.0,Phases=1,kv=0.127,kw=0.125313899853533,pf=0.92,Vminpu=0.92,Vmaxpu=1.5,model=2,daily=arqCurvaNormRES2,status=variable
new load.3000465272M2 bus1=R1200812.1.0,Phases=1,kv=0.127,kw=0.125313899853533,pf=0.92,Vminpu=0.92,Vmaxpu=1.5,model=3,daily=arqCurvaNormRES2,status=variable

new load.3000465273M1 bus1=R1200924.1.0,Phases=1,kv=0.127,kw=0.070991224197981,pf=0.92,Vminpu=0.92,Vmaxpu=1.5,model=2,daily=arqCurvaNormRES3,status=variable
new load.3000465273M2 bus1=R1200924.1.0,Phases=1,kv=0.127,kw=0.070991224197981,pf=0.92,Vminpu=0.92,Vmaxpu=1.5,model=3,daily=arqCurvaNormRES3,status=variable

new load.3000465274M1 bus1=R1200931.1.0,Phases=1,kv=0.127,kw=0.130762330281947,pf=0.92,Vminpu=0.92,Vmaxpu=1.5,model=2,daily=arqCurvaNormRES2,status=variable
new load.3000465274M2 bus1=R1200931.1.0,Phases=1,kv=0.127,kw=0.130762330281947,pf=0.92,Vminpu=0.92,Vmaxpu=1.5,model=3,daily=arqCurvaNormRES2,status=variable

new load.3000465275M1 bus1=R1200889.1.0,Phases=1,kv=0.127,kw=0.0830885640333205,pf=0.92,Vminpu=0.92,Vmaxpu=1.5,model=2,daily=arqCurvaNormRES2,status=variable
new load.3000465275M2 bus1=R1200889.1.0,Phases=1,kv=0.127,kw=0.0830885640333205,pf=0.92,Vminpu=0.92,Vmaxpu=1.5,model=3,daily=arqCurvaNormRES2,status=variable

new load.3000465276M1 bus1=R1200861.1.0,Phases=1,kv=0.127,kw=0.159366590031123,pf=0.92,Vminpu=0.92,Vmaxpu=1.5,model=2,daily=arqCurvaNormRES2,status=variable
new load.3000465276M2 bus1=R1200861.1.0,Phases=1,kv=0.127,kw=0.159366590031123,pf=0.92,Vminpu=0.92,Vmaxpu=1.5,model=3,daily=arqCurvaNormRES2,status=variable

new load.3000465279M1 bus1=R1200980.1.0,Phases=1,kv=0.127,kw=0.140297083531672,pf=0.92,Vminpu=0.92,Vmaxpu=1.5,model=2,daily=arqCurvaNormRES2,status=variable
new load.3000465279M2 bus1=R1200980.1.0,Phases=1,kv=0.127,kw=0.140297083531672,pf=0.92,Vminpu=0.92,Vmaxpu=1.5,model=3,daily=arqCurvaNormRES2,status=variable

new load.3000465280M1 bus1=R1201309.1.0,Phases=1,kv=0.127,kw=0.137572868317465,pf=0.92,Vminpu=0.92,Vmaxpu=1.5,model=2,daily=arqCurvaNormRES2,status=variable
new load.3000465280M2 bus1=R1201309.1.0,Phases=1,kv=0.127,kw=0.137572868317465,pf=0.92,Vminpu=0.92,Vmaxpu=1.5,model=3,daily=arqCurvaNormRES2,status=variable

new load.3000465281M1 bus1=R1201302.1.0,Phases=1,kv=0.127,kw=0.0746796220877245,pf=0.92,Vminpu=0.92,Vmaxpu=1.5,model=2,daily=arqCurvaNormRES1,status=variable
new load.3000465281M2 bus1=R1201302.1.0,Phases=1,kv=0.127,kw=0.0746796220877245,pf=0.92,Vminpu=0.92,Vmaxpu=1.5,model=3,daily=arqCurvaNormRES1,status=variable

new load.3000465282M1 bus1=R1201295.1.0,Phases=1,kv=0.127,kw=0.0235102513979873,pf=0.92,Vminpu=0.92,Vmaxpu=1.5,model=2,daily=arqCurvaNormRES1,status=variable
new load.3000465282M2 bus1=R1201295.1.0,Phases=1,kv=0.127,kw=0.0235102513979873,pf=0.92,Vminpu=0.92,Vmaxpu=1.5,model=3,daily=arqCurvaNormRES1,status=variable

new load.3000465285M1 bus1=R1201267.1.0,Phases=1,kv=0.127,kw=0.160728697638227,pf=0.92,Vminpu=0.92,Vmaxpu=1.5,model=2,daily=arqCurvaNormRES2,status=variable
new load.3000465285M2 bus1=R1201267.1.0,Phases=1,kv=0.127,kw=0.160728697638227,pf=0.92,Vminpu=0.92,Vmaxpu=1.5,model=3,daily=arqCurvaNormRES2,status=variable

new load.3000465287M1 bus1=R1201281.1.0,Phases=1,kv=0.127,kw=0.148469729174294,pf=0.92,Vminpu=0.92,Vmaxpu=1.5,model=2,daily=arqCurvaNormRES2,status=variable
new load.3000465287M2 bus1=R1201281.1.0,Phases=1,kv=0.127,kw=0.148469729174294,pf=0.92,Vminpu=0.92,Vmaxpu=1.5,model=3,daily=arqCurvaNormRES2,status=variable

new load.3000465288M1 bus1=R1200959.1.0,Phases=1,kv=0.127,kw=0.112019433131586,pf=0.92,Vminpu=0.92,Vmaxpu=1.5,model=2,daily=arqCurvaNormRES1,status=variable
new load.3000465288M2 bus1=R1200959.1.0,Phases=1,kv=0.127,kw=0.112019433131586,pf=0.92,Vminpu=0.92,Vmaxpu=1.5,model=3,daily=arqCurvaNormRES1,status=variable

new load.3000465289M1 bus1=R1200945.1.0,Phases=1,kv=0.127,kw=0.155280267209812,pf=0.92,Vminpu=0.92,Vmaxpu=1.5,model=2,daily=arqCurvaNormRES2,status=variable
new load.3000465289M2 bus1=R1200945.1.0,Phases=1,kv=0.127,kw=0.155280267209812,pf=0.92,Vminpu=0.92,Vmaxpu=1.5,model=3,daily=arqCurvaNormRES2,status=variable

new load.3000465290M1 bus1=R1200966.1.0,Phases=1,kv=0.127,kw=0.198775427754346,pf=0.92,Vminpu=0.92,Vmaxpu=1.5,model=2,daily=arqCurvaNormRES3,status=variable
new load.3000465290M2 bus1=R1200966.1.0,Phases=1,kv=0.127,kw=0.198775427754346,pf=0.92,Vminpu=0.92,Vmaxpu=1.5,model=3,daily=arqCurvaNormRES3,status=variable

new load.3000465291M1 bus1=R1200903.1.0,Phases=1,kv=0.127,kw=0.179798204137677,pf=0.92,Vminpu=0.92,Vmaxpu=1.5,model=2,daily=arqCurvaNormRES2,status=variable
new load.3000465291M2 bus1=R1200903.1.0,Phases=1,kv=0.127,kw=0.179798204137677,pf=0.92,Vminpu=0.92,Vmaxpu=1.5,model=3,daily=arqCurvaNormRES2,status=variable

new load.3000465292M1 bus1=R1200805.1.0,Phases=1,kv=0.127,kw=0.0663818863001995,pf=0.92,Vminpu=0.92,Vmaxpu=1.5,model=2,daily=arqCurvaNormRES1,status=variable
new load.3000465292M2 bus1=R1200805.1.0,Phases=1,kv=0.127,kw=0.0663818863001995,pf=0.92,Vminpu=0.92,Vmaxpu=1.5,model=3,daily=arqCurvaNormRES1,status=variable

new load.3000465293M1 bus1=R1200665.1.0,Phases=1,kv=0.127,kw=0.0345738991146872,pf=0.92,Vminpu=0.92,Vmaxpu=1.5,model=2,daily=arqCurvaNormRES1,status=variable
new load.3000465293M2 bus1=R1200665.1.0,Phases=1,kv=0.127,kw=0.0345738991146872,pf=0.92,Vminpu=0.92,Vmaxpu=1.5,model=3,daily=arqCurvaNormRES1,status=variable

new load.3000465294M1 bus1=R1200658.1.0,Phases=1,kv=0.127,kw=0.106487609273237,pf=0.92,Vminpu=0.92,Vmaxpu=1.5,model=2,daily=arqCurvaNormRES1,status=variable
new load.3000465294M2 bus1=R1200658.1.0,Phases=1,kv=0.127,kw=0.106487609273237,pf=0.92,Vminpu=0.92,Vmaxpu=1.5,model=3,daily=arqCurvaNormRES1,status=variable

new load.3000465295M1 bus1=R1200833.1.0,Phases=1,kv=0.127,kw=0.25911796832263,pf=0.92,Vminpu=0.92,Vmaxpu=1.5,model=2,daily=arqCurvaNormRES3,status=variable
new load.3000465295M2 bus1=R1200833.1.0,Phases=1,kv=0.127,kw=0.25911796832263,pf=0.92,Vminpu=0.92,Vmaxpu=1.5,model=3,daily=arqCurvaNormRES3,status=variable

new load.3000465296M1 bus1=R1200623.1.0,Phases=1,kv=0.127,kw=0.076062578052312,pf=0.92,Vminpu=0.92,Vmaxpu=1.5,model=2,daily=arqCurvaNormRES1,status=variable
new load.3000465296M2 bus1=R1200623.1.0,Phases=1,kv=0.127,kw=0.076062578052312,pf=0.92,Vminpu=0.92,Vmaxpu=1.5,model=3,daily=arqCurvaNormRES1,status=variable

new load.3000465297M1 bus1=R1200112.1.0,Phases=1,kv=0.127,kw=0.215213001922371,pf=0.92,Vminpu=0.92,Vmaxpu=1.5,model=2,daily=arqCurvaNormRES2,status=variable
new load.3000465297M2 bus1=R1200112.1.0,Phases=1,kv=0.127,kw=0.215213001922371,pf=0.92,Vminpu=0.92,Vmaxpu=1.5,model=3,daily=arqCurvaNormRES2,status=variable

new load.3000465298M1 bus1=R6180465.1.0,Phases=1,kv=0.127,kw=0.0373398110438622,pf=0.92,Vminpu=0.92,Vmaxpu=1.5,model=2,daily=arqCurvaNormRES1,status=variable
new load.3000465298M2 bus1=R6180465.1.0,Phases=1,kv=0.127,kw=0.0373398110438622,pf=0.92,Vminpu=0.92,Vmaxpu=1.5,model=3,daily=arqCurvaNormRES1,status=variable

new load.3000465299M1 bus1=R1200084.1.0,Phases=1,kv=0.127,kw=0.280594167063344,pf=0.92,Vminpu=0.92,Vmaxpu=1.5,model=2,daily=arqCurvaNormRES2,status=variable
new load.3000465299M2 bus1=R1200084.1.0,Phases=1,kv=0.127,kw=0.280594167063344,pf=0.92,Vminpu=0.92,Vmaxpu=1.5,model=3,daily=arqCurvaNormRES2,status=variable

new load.3000465300M1 bus1=R1200056.1.0,Phases=1,kv=0.127,kw=0.066743272748077,pf=0.92,Vminpu=0.92,Vmaxpu=1.5,model=2,daily=arqCurvaNormRES2,status=variable
new load.3000465300M2 bus1=R1200056.1.0,Phases=1,kv=0.127,kw=0.066743272748077,pf=0.92,Vminpu=0.92,Vmaxpu=1.5,model=3,daily=arqCurvaNormRES2,status=variable

new load.3000465302M1 bus1=R1200042.1.2.0,Phases=2,kv=0.22,kw=0.05964086116746,pf=0.92,Vminpu=0.92,Vmaxpu=1.5,model=2,daily=arqCurvaNormCOM1,status=variable
new load.3000465302M2 bus1=R1200042.1.2.0,Phases=2,kv=0.22,kw=0.05964086116746,pf=0.92,Vminpu=0.92,Vmaxpu=1.5,model=3,daily=arqCurvaNormCOM1,status=variable

new load.3000465304M1 bus1=R1200210.1.0,Phases=1,kv=0.127,kw=0.136210760710362,pf=0.92,Vminpu=0.92,Vmaxpu=1.5,model=2,daily=arqCurvaNormRES2,status=variable
new load.3000465304M2 bus1=R1200210.1.0,Phases=1,kv=0.127,kw=0.136210760710362,pf=0.92,Vminpu=0.92,Vmaxpu=1.5,model=3,daily=arqCurvaNormRES2,status=variable

new load.3000465305M1 bus1=R1200217.1.0,Phases=1,kv=0.127,kw=0.16209662858539,pf=0.92,Vminpu=0.92,Vmaxpu=1.5,model=2,daily=arqCurvaNormRES3,status=variable
new load.3000465305M2 bus1=R1200217.1.0,Phases=1,kv=0.127,kw=0.16209662858539,pf=0.92,Vminpu=0.92,Vmaxpu=1.5,model=3,daily=arqCurvaNormRES3,status=variable

new load.3000465306M1 bus1=R1199615.1.0,Phases=1,kv=0.127,kw=1.13303962933158,pf=0.92,Vminpu=0.92,Vmaxpu=1.5,model=2,daily=arqCurvaNormRES6,status=variable
new load.3000465306M2 bus1=R1199615.1.0,Phases=1,kv=0.127,kw=1.13303962933158,pf=0.92,Vminpu=0.92,Vmaxpu=1.5,model=3,daily=arqCurvaNormRES6,status=variable

new load.3000465307M1 bus1=R1199636.1.0,Phases=1,kv=0.127,kw=0.129997860671224,pf=0.92,Vminpu=0.92,Vmaxpu=1.5,model=2,daily=arqCurvaNormRES1,status=variable
new load.3000465307M2 bus1=R1199636.1.0,Phases=1,kv=0.127,kw=0.129997860671224,pf=0.92,Vminpu=0.92,Vmaxpu=1.5,model=3,daily=arqCurvaNormRES1,status=variable

new load.3000465308M1 bus1=R1200553.1.2.0,Phases=2,kv=0.22,kw=0.067764842264787,pf=0.92,Vminpu=0.92,Vmaxpu=1.5,model=2,daily=arqCurvaNormRES1,status=variable
new load.3000465308M2 bus1=R1200553.1.2.0,Phases=2,kv=0.22,kw=0.067764842264787,pf=0.92,Vminpu=0.92,Vmaxpu=1.5,model=3,daily=arqCurvaNormRES1,status=variable

new load.3000465310M1 bus1=R1200161.1.2.0,Phases=2,kv=0.22,kw=0.123951792246429,pf=0.92,Vminpu=0.92,Vmaxpu=1.5,model=2,daily=arqCurvaNormRES2,status=variable
new load.3000465310M2 bus1=R1200161.1.2.0,Phases=2,kv=0.22,kw=0.123951792246429,pf=0.92,Vminpu=0.92,Vmaxpu=1.5,model=3,daily=arqCurvaNormRES2,status=variable

new load.3000465311M1 bus1=R1200133.1.0,Phases=1,kv=0.127,kw=0.084360313839837,pf=0.92,Vminpu=0.92,Vmaxpu=1.5,model=2,daily=arqCurvaNormRES1,status=variable
new load.3000465311M2 bus1=R1200133.1.0,Phases=1,kv=0.127,kw=0.084360313839837,pf=0.92,Vminpu=0.92,Vmaxpu=1.5,model=3,daily=arqCurvaNormRES1,status=variable

new load.3000465313M1 bus1=R1200126.1.0,Phases=1,kv=0.127,kw=0.194781387815817,pf=0.92,Vminpu=0.92,Vmaxpu=1.5,model=2,daily=arqCurvaNormRES2,status=variable
new load.3000465313M2 bus1=R1200126.1.0,Phases=1,kv=0.127,kw=0.194781387815817,pf=0.92,Vminpu=0.92,Vmaxpu=1.5,model=3,daily=arqCurvaNormRES2,status=variable

new load.3000465314M1 bus1=R1199643.1.0,Phases=1,kv=0.127,kw=0.168901343280848,pf=0.92,Vminpu=0.92,Vmaxpu=1.5,model=2,daily=arqCurvaNormRES2,status=variable
new load.3000465314M2 bus1=R1199643.1.0,Phases=1,kv=0.127,kw=0.168901343280848,pf=0.92,Vminpu=0.92,Vmaxpu=1.5,model=3,daily=arqCurvaNormRES2,status=variable

new load.3000465316M1 bus1=R1199657.1.0,Phases=1,kv=0.127,kw=0.128038115067739,pf=0.92,Vminpu=0.92,Vmaxpu=1.5,model=2,daily=arqCurvaNormRES2,status=variable
new load.3000465316M2 bus1=R1199657.1.0,Phases=1,kv=0.127,kw=0.128038115067739,pf=0.92,Vminpu=0.92,Vmaxpu=1.5,model=3,daily=arqCurvaNormRES2,status=variable

new load.3000465317M1 bus1=R1199629.1.0,Phases=1,kv=0.127,kw=0.110636477166999,pf=0.92,Vminpu=0.92,Vmaxpu=1.5,model=2,daily=arqCurvaNormRES1,status=variable
new load.3000465317M2 bus1=R1199629.1.0,Phases=1,kv=0.127,kw=0.110636477166999,pf=0.92,Vminpu=0.92,Vmaxpu=1.5,model=3,daily=arqCurvaNormRES1,status=variable

new load.3000465319M1 bus1=R1199454.1.0,Phases=1,kv=0.127,kw=0.099572829450299,pf=0.92,Vminpu=0.92,Vmaxpu=1.5,model=2,daily=arqCurvaNormRES1,status=variable
new load.3000465319M2 bus1=R1199454.1.0,Phases=1,kv=0.127,kw=0.099572829450299,pf=0.92,Vminpu=0.92,Vmaxpu=1.5,model=3,daily=arqCurvaNormRES1,status=variable

new load.3000465320M1 bus1=R1199461.1.0,Phases=1,kv=0.127,kw=0.136912640494161,pf=0.92,Vminpu=0.92,Vmaxpu=1.5,model=2,daily=arqCurvaNormRES1,status=variable
new load.3000465320M2 bus1=R1199461.1.0,Phases=1,kv=0.127,kw=0.136912640494161,pf=0.92,Vminpu=0.92,Vmaxpu=1.5,model=3,daily=arqCurvaNormRES1,status=variable

new load.3000465321M1 bus1=R1199447.1.0,Phases=1,kv=0.127,kw=0.0165954715750498,pf=0.92,Vminpu=0.92,Vmaxpu=1.5,model=2,daily=arqCurvaNormRES1,status=variable
new load.3000465321M2 bus1=R1199447.1.0,Phases=1,kv=0.127,kw=0.0165954715750498,pf=0.92,Vminpu=0.92,Vmaxpu=1.5,model=3,daily=arqCurvaNormRES1,status=variable

new load.3000465322M1 bus1=R1199216.1.0,Phases=1,kv=0.127,kw=0.170378938075154,pf=0.92,Vminpu=0.92,Vmaxpu=1.5,model=2,daily=arqCurvaNormRES3,status=variable
new load.3000465322M2 bus1=R1199216.1.0,Phases=1,kv=0.127,kw=0.170378938075154,pf=0.92,Vminpu=0.92,Vmaxpu=1.5,model=3,daily=arqCurvaNormRES3,status=variable

new load.3000465323M1 bus1=R1199202.1.0,Phases=1,kv=0.127,kw=0.105303649227005,pf=0.92,Vminpu=0.92,Vmaxpu=1.5,model=2,daily=arqCurvaNormRES3,status=variable
new load.3000465323M2 bus1=R1199202.1.0,Phases=1,kv=0.127,kw=0.105303649227005,pf=0.92,Vminpu=0.92,Vmaxpu=1.5,model=3,daily=arqCurvaNormRES3,status=variable

new load.3000465324M1 bus1=R1199671.1.0,Phases=1,kv=0.127,kw=0.133486545496154,pf=0.92,Vminpu=0.92,Vmaxpu=1.5,model=2,daily=arqCurvaNormRES2,status=variable
new load.3000465324M2 bus1=R1199671.1.0,Phases=1,kv=0.127,kw=0.133486545496154,pf=0.92,Vminpu=0.92,Vmaxpu=1.5,model=3,daily=arqCurvaNormRES2,status=variable

new load.3000465325M1 bus1=R1199678.1.2.3.0,Phases=3,kv=0.22,kw=0.308811825261216,pf=0.92,Vminpu=0.92,Vmaxpu=1.5,model=2,daily=arqCurvaNormRES3,status=variable
new load.3000465325M2 bus1=R1199678.1.2.3.0,Phases=3,kv=0.22,kw=0.308811825261216,pf=0.92,Vminpu=0.92,Vmaxpu=1.5,model=3,daily=arqCurvaNormRES3,status=variable

new load.3000465326M1 bus1=R1199664.1.2.3.0,Phases=3,kv=0.22,kw=0.501110231016295,pf=0.92,Vminpu=0.92,Vmaxpu=1.5,model=2,daily=arqCurvaNormCOM2,status=variable
new load.3000465326M2 bus1=R1199664.1.2.3.0,Phases=3,kv=0.22,kw=0.501110231016295,pf=0.92,Vminpu=0.92,Vmaxpu=1.5,model=3,daily=arqCurvaNormCOM2,status=variable

new load.3000465327M1 bus1=R4690011.1.0,Phases=1,kv=0.127,kw=0.163452912852433,pf=0.92,Vminpu=0.92,Vmaxpu=1.5,model=2,daily=arqCurvaNormRES2,status=variable
new load.3000465327M2 bus1=R4690011.1.0,Phases=1,kv=0.127,kw=0.163452912852433,pf=0.92,Vminpu=0.92,Vmaxpu=1.5,model=3,daily=arqCurvaNormRES2,status=variable

new load.3000465330M1 bus1=R1199398.1.2.0,Phases=2,kv=0.22,kw=0.264248875778101,pf=0.92,Vminpu=0.92,Vmaxpu=1.5,model=2,daily=arqCurvaNormRES2,status=variable
new load.3000465330M2 bus1=R1199398.1.2.0,Phases=2,kv=0.22,kw=0.264248875778101,pf=0.92,Vminpu=0.92,Vmaxpu=1.5,model=3,daily=arqCurvaNormRES2,status=variable

new load.3000465331M1 bus1=R1199377.1.0,Phases=1,kv=0.127,kw=0.227471970386304,pf=0.92,Vminpu=0.92,Vmaxpu=1.5,model=2,daily=arqCurvaNormRES2,status=variable
new load.3000465331M2 bus1=R1199377.1.0,Phases=1,kv=0.127,kw=0.227471970386304,pf=0.92,Vminpu=0.92,Vmaxpu=1.5,model=3,daily=arqCurvaNormRES2,status=variable

new load.3000465332M1 bus1=R1199419.1.0,Phases=1,kv=0.127,kw=0.00138295596458749,pf=0.92,Vminpu=0.92,Vmaxpu=1.5,model=2,daily=arqCurvaNormRES1,status=variable
new load.3000465332M2 bus1=R1199419.1.0,Phases=1,kv=0.127,kw=0.00138295596458749,pf=0.92,Vminpu=0.92,Vmaxpu=1.5,model=3,daily=arqCurvaNormRES1,status=variable

new load.3000465333M1 bus1=R1199426.1.0,Phases=1,kv=0.127,kw=0.076062578052312,pf=0.92,Vminpu=0.92,Vmaxpu=1.5,model=2,daily=arqCurvaNormRES1,status=variable
new load.3000465333M2 bus1=R1199426.1.0,Phases=1,kv=0.127,kw=0.076062578052312,pf=0.92,Vminpu=0.92,Vmaxpu=1.5,model=3,daily=arqCurvaNormRES1,status=variable

new load.3000465338M1 bus1=R1199405.1.0,Phases=1,kv=0.127,kw=0.0235102513979873,pf=0.92,Vminpu=0.92,Vmaxpu=1.5,model=2,daily=arqCurvaNormRES1,status=variable
new load.3000465338M2 bus1=R1199405.1.0,Phases=1,kv=0.127,kw=0.0235102513979873,pf=0.92,Vminpu=0.92,Vmaxpu=1.5,model=3,daily=arqCurvaNormRES1,status=variable

new load.3000465339M1 bus1=R1199433.1.0,Phases=1,kv=0.127,kw=0.216523233803842,pf=0.92,Vminpu=0.92,Vmaxpu=1.5,model=2,daily=arqCurvaNormRES3,status=variable
new load.3000465339M2 bus1=R1199433.1.0,Phases=1,kv=0.127,kw=0.216523233803842,pf=0.92,Vminpu=0.92,Vmaxpu=1.5,model=3,daily=arqCurvaNormRES3,status=variable

new load.3000465340M1 bus1=R1199356.1.0,Phases=1,kv=0.127,kw=0.19205717260161,pf=0.92,Vminpu=0.92,Vmaxpu=1.5,model=2,daily=arqCurvaNormRES2,status=variable
new load.3000465340M2 bus1=R1199356.1.0,Phases=1,kv=0.127,kw=0.19205717260161,pf=0.92,Vminpu=0.92,Vmaxpu=1.5,model=3,daily=arqCurvaNormRES2,status=variable

new load.3000465341M1 bus1=R1199111.1.2.3.0,Phases=3,kv=0.22,kw=0.085743269804424,pf=0.92,Vminpu=0.92,Vmaxpu=1.5,model=2,daily=arqCurvaNormRES1,status=variable
new load.3000465341M2 bus1=R1199111.1.2.3.0,Phases=3,kv=0.22,kw=0.085743269804424,pf=0.92,Vminpu=0.92,Vmaxpu=1.5,model=3,daily=arqCurvaNormRES1,status=variable

new load.3000465342M1 bus1=R1199090.1.0,Phases=1,kv=0.127,kw=0.0319460508890914,pf=0.92,Vminpu=0.92,Vmaxpu=1.5,model=2,daily=arqCurvaNormRES3,status=variable
new load.3000465342M2 bus1=R1199090.1.0,Phases=1,kv=0.127,kw=0.0319460508890914,pf=0.92,Vminpu=0.92,Vmaxpu=1.5,model=3,daily=arqCurvaNormRES3,status=variable

new load.3000465343M1 bus1=R1199118.1.0,Phases=1,kv=0.127,kw=0.0719137101585495,pf=0.92,Vminpu=0.92,Vmaxpu=1.5,model=2,daily=arqCurvaNormRES1,status=variable
new load.3000465343M2 bus1=R1199118.1.0,Phases=1,kv=0.127,kw=0.0719137101585495,pf=0.92,Vminpu=0.92,Vmaxpu=1.5,model=3,daily=arqCurvaNormRES1,status=variable

new load.3000465345M1 bus1=R1199097.1.2.3.0,Phases=3,kv=0.22,kw=0.053935282618912,pf=0.92,Vminpu=0.92,Vmaxpu=1.5,model=2,daily=arqCurvaNormRES1,status=variable
new load.3000465345M2 bus1=R1199097.1.2.3.0,Phases=3,kv=0.22,kw=0.053935282618912,pf=0.92,Vminpu=0.92,Vmaxpu=1.5,model=3,daily=arqCurvaNormRES1,status=variable

new load.3000465346M1 bus1=R1199230.1.0,Phases=1,kv=0.127,kw=0.227471970386304,pf=0.92,Vminpu=0.92,Vmaxpu=1.5,model=2,daily=arqCurvaNormRES2,status=variable
new load.3000465346M2 bus1=R1199230.1.0,Phases=1,kv=0.127,kw=0.227471970386304,pf=0.92,Vminpu=0.92,Vmaxpu=1.5,model=3,daily=arqCurvaNormRES2,status=variable

new load.3000465347M1 bus1=R1199244.1.0,Phases=1,kv=0.127,kw=0.129400222674843,pf=0.92,Vminpu=0.92,Vmaxpu=1.5,model=2,daily=arqCurvaNormRES2,status=variable
new load.3000465347M2 bus1=R1199244.1.0,Phases=1,kv=0.127,kw=0.129400222674843,pf=0.92,Vminpu=0.92,Vmaxpu=1.5,model=3,daily=arqCurvaNormRES2,status=variable

new load.3000465348M1 bus1=R1199517.1.2.3.0,Phases=3,kv=0.22,kw=0.548572213249115,pf=0.92,Vminpu=0.92,Vmaxpu=1.5,model=2,daily=arqCurvaNormCOM2,status=variable
new load.3000465348M2 bus1=R1199517.1.2.3.0,Phases=3,kv=0.22,kw=0.548572213249115,pf=0.92,Vminpu=0.92,Vmaxpu=1.5,model=3,daily=arqCurvaNormCOM2,status=variable

new load.3000465349M1 bus1=R1199510.1.2.0,Phases=2,kv=0.22,kw=0.262667529532529,pf=0.92,Vminpu=0.92,Vmaxpu=1.5,model=2,daily=arqCurvaNormRES3,status=variable
new load.3000465349M2 bus1=R1199510.1.2.0,Phases=2,kv=0.22,kw=0.262667529532529,pf=0.92,Vminpu=0.92,Vmaxpu=1.5,model=3,daily=arqCurvaNormRES3,status=variable

new load.3000465350M1 bus1=R1199510.1.2.0,Phases=2,kv=0.22,kw=0.058315508697072,pf=0.92,Vminpu=0.92,Vmaxpu=1.5,model=2,daily=arqCurvaNormCOM1,status=variable
new load.3000465350M2 bus1=R1199510.1.2.0,Phases=2,kv=0.22,kw=0.058315508697072,pf=0.92,Vminpu=0.92,Vmaxpu=1.5,model=3,daily=arqCurvaNormCOM1,status=variable

new load.3000465351M1 bus1=R1199545.1.2.3.0,Phases=3,kv=0.22,kw=0.149831836781398,pf=0.92,Vminpu=0.92,Vmaxpu=1.5,model=2,daily=arqCurvaNormRES2,status=variable
new load.3000465351M2 bus1=R1199545.1.2.3.0,Phases=3,kv=0.22,kw=0.149831836781398,pf=0.92,Vminpu=0.92,Vmaxpu=1.5,model=3,daily=arqCurvaNormRES2,status=variable

new load.3000465352M1 bus1=R1199531.1.0,Phases=1,kv=0.127,kw=0.0774455340168995,pf=0.92,Vminpu=0.92,Vmaxpu=1.5,model=2,daily=arqCurvaNormRES1,status=variable
new load.3000465352M2 bus1=R1199531.1.0,Phases=1,kv=0.127,kw=0.0774455340168995,pf=0.92,Vminpu=0.92,Vmaxpu=1.5,model=3,daily=arqCurvaNormRES1,status=variable

new load.3000465353M1 bus1=R1199538.1.0,Phases=1,kv=0.127,kw=0.204691363104178,pf=0.92,Vminpu=0.92,Vmaxpu=1.5,model=2,daily=arqCurvaNormRES3,status=variable
new load.3000465353M2 bus1=R1199538.1.0,Phases=1,kv=0.127,kw=0.204691363104178,pf=0.92,Vminpu=0.92,Vmaxpu=1.5,model=3,daily=arqCurvaNormRES3,status=variable

new load.3000465354M1 bus1=R1199685.1.2.0,Phases=2,kv=0.22,kw=0.108678902571816,pf=0.92,Vminpu=0.92,Vmaxpu=1.5,model=2,daily=arqCurvaNormCOM1,status=variable
new load.3000465354M2 bus1=R1199685.1.2.0,Phases=2,kv=0.22,kw=0.108678902571816,pf=0.92,Vminpu=0.92,Vmaxpu=1.5,model=3,daily=arqCurvaNormCOM1,status=variable

new load.3000465356M1 bus1=R1220419.1.0,Phases=1,kv=0.127,kw=0.324193257170779,pf=0.92,Vminpu=0.92,Vmaxpu=1.5,model=2,daily=arqCurvaNormRES3,status=variable
new load.3000465356M2 bus1=R1220419.1.0,Phases=1,kv=0.127,kw=0.324193257170779,pf=0.92,Vminpu=0.92,Vmaxpu=1.5,model=3,daily=arqCurvaNormRES3,status=variable

new load.3000465358M1 bus1=R1220510.1.2.0,Phases=2,kv=0.22,kw=0.343330971364596,pf=0.92,Vminpu=0.92,Vmaxpu=1.5,model=2,daily=arqCurvaNormRES4,status=variable
new load.3000465358M2 bus1=R1220510.1.2.0,Phases=2,kv=0.22,kw=0.343330971364596,pf=0.92,Vminpu=0.92,Vmaxpu=1.5,model=3,daily=arqCurvaNormRES4,status=variable

new load.3000465359M1 bus1=R1220503.1.0,Phases=1,kv=0.127,kw=0.450876463377054,pf=0.92,Vminpu=0.92,Vmaxpu=1.5,model=2,daily=arqCurvaNormRES5,status=variable
new load.3000465359M2 bus1=R1220503.1.0,Phases=1,kv=0.127,kw=0.450876463377054,pf=0.92,Vminpu=0.92,Vmaxpu=1.5,model=3,daily=arqCurvaNormRES5,status=variable

new load.3000465362M1 bus1=R1220594.1.0,Phases=1,kv=0.127,kw=0.228355104503505,pf=0.92,Vminpu=0.92,Vmaxpu=1.5,model=2,daily=arqCurvaNormRES3,status=variable
new load.3000465362M2 bus1=R1220594.1.0,Phases=1,kv=0.127,kw=0.228355104503505,pf=0.92,Vminpu=0.92,Vmaxpu=1.5,model=3,daily=arqCurvaNormRES3,status=variable

new load.3000465363M1 bus1=R1220587.1.0,Phases=1,kv=0.127,kw=0.141659191138776,pf=0.92,Vminpu=0.92,Vmaxpu=1.5,model=2,daily=arqCurvaNormRES2,status=variable
new load.3000465363M2 bus1=R1220587.1.0,Phases=1,kv=0.127,kw=0.141659191138776,pf=0.92,Vminpu=0.92,Vmaxpu=1.5,model=3,daily=arqCurvaNormRES2,status=variable

new load.3000465365M1 bus1=R10075971.1.2.0,Phases=2,kv=0.22,kw=3.15554687359663,pf=0.92,Vminpu=0.92,Vmaxpu=1.5,model=2,daily=arqCurvaNormRUR4,status=variable
new load.3000465365M2 bus1=R10075971.1.2.0,Phases=2,kv=0.22,kw=3.15554687359663,pf=0.92,Vminpu=0.92,Vmaxpu=1.5,model=3,daily=arqCurvaNormRUR4,status=variable

new load.3000465366M1 bus1=R1220650.1.0,Phases=1,kv=0.127,kw=0.14710762156719,pf=0.92,Vminpu=0.92,Vmaxpu=1.5,model=2,daily=arqCurvaNormRES2,status=variable
new load.3000465366M2 bus1=R1220650.1.0,Phases=1,kv=0.127,kw=0.14710762156719,pf=0.92,Vminpu=0.92,Vmaxpu=1.5,model=3,daily=arqCurvaNormRES2,status=variable

new load.3000465368M1 bus1=R1220671.1.0,Phases=1,kv=0.127,kw=0.159366590031123,pf=0.92,Vminpu=0.92,Vmaxpu=1.5,model=2,daily=arqCurvaNormRES2,status=variable
new load.3000465368M2 bus1=R1220671.1.0,Phases=1,kv=0.127,kw=0.159366590031123,pf=0.92,Vminpu=0.92,Vmaxpu=1.5,model=3,daily=arqCurvaNormRES2,status=variable

new load.3000465369M1 bus1=R1220643.1.0,Phases=1,kv=0.127,kw=0.132763772600399,pf=0.92,Vminpu=0.92,Vmaxpu=1.5,model=2,daily=arqCurvaNormRES1,status=variable
new load.3000465369M2 bus1=R1220643.1.0,Phases=1,kv=0.127,kw=0.132763772600399,pf=0.92,Vminpu=0.92,Vmaxpu=1.5,model=3,daily=arqCurvaNormRES1,status=variable

new load.3000465370M1 bus1=R1220636.1.0,Phases=1,kv=0.127,kw=0.0580841505126745,pf=0.92,Vminpu=0.92,Vmaxpu=1.5,model=2,daily=arqCurvaNormRES1,status=variable
new load.3000465370M2 bus1=R1220636.1.0,Phases=1,kv=0.127,kw=0.0580841505126745,pf=0.92,Vminpu=0.92,Vmaxpu=1.5,model=3,daily=arqCurvaNormRES1,status=variable

new load.3000465371M1 bus1=R1220615.1.0,Phases=1,kv=0.127,kw=0.102338741379474,pf=0.92,Vminpu=0.92,Vmaxpu=1.5,model=2,daily=arqCurvaNormRES1,status=variable
new load.3000465371M2 bus1=R1220615.1.0,Phases=1,kv=0.127,kw=0.102338741379474,pf=0.92,Vminpu=0.92,Vmaxpu=1.5,model=3,daily=arqCurvaNormRES1,status=variable

new load.3000465373M1 bus1=R1220559.1.0,Phases=1,kv=0.127,kw=0.177124812082089,pf=0.92,Vminpu=0.92,Vmaxpu=1.5,model=2,daily=arqCurvaNormRES4,status=variable
new load.3000465373M2 bus1=R1220559.1.0,Phases=1,kv=0.127,kw=0.177124812082089,pf=0.92,Vminpu=0.92,Vmaxpu=1.5,model=3,daily=arqCurvaNormRES4,status=variable

new load.3000465374M1 bus1=R1220566.1.0,Phases=1,kv=0.127,kw=0.117141254210911,pf=0.92,Vminpu=0.92,Vmaxpu=1.5,model=2,daily=arqCurvaNormRES2,status=variable
new load.3000465374M2 bus1=R1220566.1.0,Phases=1,kv=0.127,kw=0.117141254210911,pf=0.92,Vminpu=0.92,Vmaxpu=1.5,model=3,daily=arqCurvaNormRES2,status=variable

new load.3000465375M1 bus1=R1220573.1.0,Phases=1,kv=0.127,kw=0.132124437889051,pf=0.92,Vminpu=0.92,Vmaxpu=1.5,model=2,daily=arqCurvaNormRES2,status=variable
new load.3000465375M2 bus1=R1220573.1.0,Phases=1,kv=0.127,kw=0.132124437889051,pf=0.92,Vminpu=0.92,Vmaxpu=1.5,model=3,daily=arqCurvaNormRES2,status=variable

new load.3000465377M1 bus1=R1220608.1.0,Phases=1,kv=0.127,kw=0.0802114459460745,pf=0.92,Vminpu=0.92,Vmaxpu=1.5,model=2,daily=arqCurvaNormRES1,status=variable
new load.3000465377M2 bus1=R1220608.1.0,Phases=1,kv=0.127,kw=0.0802114459460745,pf=0.92,Vminpu=0.92,Vmaxpu=1.5,model=3,daily=arqCurvaNormRES1,status=variable

new load.3000465378M1 bus1=R1220608.1.0,Phases=1,kv=0.127,kw=0.23856344466984,pf=0.92,Vminpu=0.92,Vmaxpu=1.5,model=2,daily=arqCurvaNormCOM1,status=variable
...